Info: SIMULATION PARAMETERS:
Info: TIMESTEP               2
Info: NUMBER OF STEPS        0
Info: STEPS PER CYCLE        10
Info: PERIODIC CELL BASIS 1  45.604 0 0
Info: PERIODIC CELL BASIS 2  0 56.95 0
Info: PERIODIC CELL BASIS 3  0 0 107.156
Info: PERIODIC CELL CENTER   0.224933 0.479269 2.64771
Info: WRAPPING WATERS AROUND PERIODIC BOUNDARIES ON OUTPUT.
Info: WRAPPING ALL CLUSTERS AROUND PERIODIC BOUNDARIES ON OUTPUT.
Info: FIRST LDB TIMESTEP     50
Info: LAST LDB TIMESTEP     -1
Info: HOM BACKGROUND SCALING 1
Info: PME BACKGROUND SCALING 1
Info: MIN ATOMS PER PATCH    40
Info: EMPTY PATCH LOAD       40 ATOMS
Info: INITIAL TEMPERATURE    60
Info: CENTER OF MASS MOVING INITIALLY? NO
Info: DIELECTRIC             1
Info: EXCLUDE                SCALED ONE-FOUR
Info: 1-4 ELECTROSTATICS SCALED BY 1
Info: MODIFIED 1-4 VDW PARAMETERS WILL BE USED
Info: DCD FILENAME           Annealing.dcd
Info: DCD FREQUENCY          1000
Info: DCD FIRST STEP         1000
Info: DCD FILE WILL CONTAIN UNIT CELL DATA
Info: XST FILENAME           Annealing.xst
Info: XST FREQUENCY          1000
Info: NO VELOCITY DCD OUTPUT
Info: NO FORCE DCD OUTPUT
Info: OUTPUT FILENAME        Annealing
Info: RESTART FILENAME       Annealing.restart
Info: RESTART FREQUENCY      1000
Info: BINARY RESTART FILES WILL BE USED
Info: SWITCHING ACTIVE
Info: SWITCHING ON           10
Info: SWITCHING OFF          12
Info: PAIRLIST DISTANCE      14
Info: PAIRLIST SHRINK RATE   0.01
Info: PAIRLIST GROW RATE     0.01
Info: PAIRLIST TRIGGER       0.3
Info: PAIRLISTS PER CYCLE    2
Info: PAIRLISTS ENABLED
Info: MARGIN                 0.495
Info: HYDROGEN GROUP CUTOFF  2.5
Info: PATCH DIMENSION        16.995
Info: ENERGY OUTPUT STEPS    40
Info: CROSSTERM ENERGY INCLUDED IN DIHEDRAL
Info: TIMING OUTPUT STEPS    40
Info: PRESSURE OUTPUT STEPS  40
Info: FIXED ATOMS ACTIVE
Info: HARMONIC CONSTRAINTS ACTIVE
Info: HARMONIC CONS EXP      2
Info: HARMONIC CONS SCALING  2
Info: LANGEVIN DYNAMICS ACTIVE
Info: LANGEVIN TEMPERATURE   60
Info: LANGEVIN USING BBK INTEGRATOR
Info: LANGEVIN DAMPING COEFFICIENT IS 1 INVERSE PS
Info: LANGEVIN DYNAMICS NOT APPLIED TO HYDROGENS
Info: LANGEVIN PISTON PRESSURE CONTROL ACTIVE
Info:        TARGET PRESSURE IS 1.01325 BAR
Info:     OSCILLATION PERIOD IS 200 FS
Info:             DECAY TIME IS 100 FS
Info:     PISTON TEMPERATURE IS 60 K
Info:       PRESSURE CONTROL IS GROUP-BASED
Info:    INITIAL STRAIN RATE IS 0 0 0
Info:       CELL FLUCTUATION IS ISOTROPIC
Info: PARTICLE MESH EWALD (PME) ACTIVE
Info: PME TOLERANCE               1e-06
Info: PME EWALD COEFFICIENT       0.257952
Info: PME INTERPOLATION ORDER     4
Info: PME GRID DIMENSIONS         48 60 108
Info: PME MAXIMUM GRID SPACING    1
Info: FULL ELECTROSTATIC EVALUATION FREQUENCY      2
Info: USING VERLET I (r-RESPA) MTS SCHEME.
Info: C1 SPLITTING OF LONG RANGE ELECTROSTATICS
Info: PLACING ATOMS IN PATCHES BY HYDROGEN GROUPS
Info: RIGID BONDS TO HYDROGEN : ALL
Info:         ERROR TOLERANCE : 1e-08
Info:          MAX ITERATIONS : 100
Info: RIGID WATER USING SETTLE ALGORITHM
Info: RANDOM NUMBER SEED     1687550091
Info: USE HYDROGEN BONDS?    NO
Info: COORDINATE PDB         WT_QwikMD.pdb
Info: STRUCTURE FILE         WT_QwikMD.psf
Info: PARAMETER file: CHARMM format!
Info: PARAMETERS             toppar_water_ions_namd.str
Info: PARAMETERS             toppar_all36_carb_glycopeptide.str
Info: PARAMETERS             par_all36_lipid.prm
Info: PARAMETERS             par_all36_na.prm
Info: PARAMETERS             par_all36_prot.prm
Info: PARAMETERS             par_all36_carb.prm
Info: PARAMETERS             par_all36_cgenff.prm
Info: USING ARITHMETIC MEAN TO COMBINE L-J SIGMA PARAMETERS
Info: BINARY COORDINATES     Minimization.restart.coor
Info: SKIPPING rtf SECTION IN STREAM FILE
Info: SKIPPING rtf SECTION IN STREAM FILE
Info: SUMMARY OF PARAMETERS:
Info: 917 BONDS
Info: 2684 ANGLES
Info: 6576 DIHEDRAL
Info: 193 IMPROPER
Info: 6 CROSSTERM
Info: 350 VDW
Info: 6 VDW_PAIRS
Info: 0 NBTHOLE_PAIRS
Info: STRUCTURE SUMMARY:
Info: 25798 ATOMS
Info: 17454 BONDS
Info: 9850 ANGLES
Info: 2250 DIHEDRALS
Info: 174 IMPROPERS
Info: 54 CROSSTERMS
Info: 0 EXCLUSIONS
Info: 225 CONSTRAINTS
Info: 0 FIXED ATOMS
Info: 25328 RIGID BONDS
Info: 0 RIGID BONDS BETWEEN FIXED ATOMS
Info: 52066 DEGREES OF FREEDOM
Info: 8768 HYDROGEN GROUPS
Info: 4 ATOMS IN LARGEST HYDROGEN GROUP
Info: 8768 MIGRATION GROUPS
Info: 4 ATOMS IN LARGEST MIGRATION GROUP
Info: 0 HYDROGEN GROUPS WITH ALL ATOMS FIXED
Info: TOTAL MASS = 156890 amu
Info: TOTAL CHARGE = 4.65661e-07 e
Info: MASS DENSITY = 0.936142 g/cm^3
Info: ATOM DENSITY = 0.0926985 atoms/A^3
Info: ADDED 29548 IMPLICIT EXCLUSIONS
Info: NONBONDED TABLE R-SQUARED SPACING: 0.0625
Info: NONBONDED TABLE SIZE: 769 POINTS
Info: REMOVING COM VELOCITY 0.0185043 0.00578051 -0.0181166
Info: Updated CUDA force table with 4096 elements.
Info: Updated CUDA LJ table with 350 x 350 elements.
Info: Updated CUDA force table with 4096 elements.
Info: Updated CUDA LJ table with 350 x 350 elements.
Info: Found 167 unique exclusion lists needing 468 bytes
Info: Found 167 unique exclusion lists needing 468 bytes
TCL: Running for 600 steps
ETITLE: TS BOND ANGLE DIHED IMPRP ELECT VDW BOUNDARY MISC KINETIC TOTAL TEMP POTENTIAL TOTAL3 TEMPAVG PRESSURE GPRESSURE VOLUME PRESSAVG GPRESSAVG
ENERGY: 0 41.8973 154.2856 419.0005 7.6572 -117866.2466 12791.6994 22.0278 0.0000 3074.5783 -101355.1004 59.4322 -104429.6787 -101354.8367 59.4322 -4031.6481 -3987.6114 278299.9697 -4031.6481 -3987.6114
ENERGY: 120 62.4562 201.4483 439.0193 10.7578 -119851.8018 15590.5282 35.9544 0.0000 2236.4704 -101275.1672 43.2314 -103511.6377 -101270.4440 41.5349 249.6680 296.5985 258117.5297 29.9169 29.8901
ENERGY: 240 60.0692 209.7834 444.6019 10.9343 -119967.5193 15438.7794 26.8223 0.0000 2513.0453 -101263.4834 48.5776 -103776.5287 -101257.9083 47.9252 132.9138 178.9360 251060.5751 3.3222 3.4189
ENERGY: 360 59.8340 205.9662 442.0700 11.9005 -119635.9201 14885.9059 30.3910 0.0000 2681.5999 -101318.2526 51.8358 -103999.8525 -101313.7046 51.3712 -153.3706 -107.6030 249480.0380 -11.5871 -11.3931
ENERGY: 480 56.3154 210.9243 435.2247 10.3005 -120146.5755 15170.3378 29.6961 0.0000 2824.4223 -101409.3544 54.5966 -104233.7767 -101402.8943 53.5773 133.8182 177.6234 248811.1399 3.0873 3.1736
ENERGY: 600 67.0543 213.1796 437.1744 11.1183 -120239.7581 15125.9434 28.8515 0.0000 2818.2303 -101538.2062 54.4769 -104356.4366 -101531.7410 54.2738 -24.2103 20.8477 248234.3393 10.3025 10.1634
TCL: Setting parameter langevintemp to 60
TCL: Setting parameter langevinpistontemp to 60
TCL: Running for 600 steps
ETITLE: TS BOND ANGLE DIHED IMPRP ELECT VDW BOUNDARY MISC KINETIC TOTAL TEMP POTENTIAL TOTAL3 TEMPAVG PRESSURE GPRESSURE VOLUME PRESSAVG GPRESSAVG
ENERGY: 600 67.0543 213.1796 437.1744 11.1183 -120239.7581 15125.9434 28.8515 0.0000 2818.1382 -101538.2984 54.4752 -104356.4366 -101531.6160 54.4752 -24.2929 20.7804 248234.3393 -24.2929 20.7804
ENERGY: 720 62.9945 215.9641 441.7987 11.5680 -120527.1339 15240.2447 28.5810 0.0000 2879.3215 -101646.6613 55.6578 -104525.9828 -101640.0120 55.3287 137.3516 183.0467 247553.7453 13.5145 13.4726
ENERGY: 840 64.3948 217.9668 442.1293 10.8462 -120510.5116 15123.0494 29.3253 0.0000 2868.0002 -101754.7996 55.4390 -104622.7998 -101747.7924 55.8024 -95.7009 -49.2858 247692.6136 -3.0192 -3.0830
ENERGY: 960 57.6660 216.8179 441.1183 11.5356 -120601.7257 15063.4121 33.8077 0.0000 2918.4414 -101858.9267 56.4140 -104777.3681 -101851.9858 56.3221 -97.6572 -57.0709 247736.2872 3.4657 3.5146
ENERGY: 1080 67.8259 222.7878 442.3661 12.0752 -120796.1500 15152.0402 29.5944 0.0000 2911.5322 -101957.9283 56.2805 -104869.4605 -101949.6637 56.2071 -151.8165 -109.8251 247538.1063 -14.9649 -15.1026
ENERGY: 1200 64.7592 217.0890 439.1215 11.2758 -120927.2725 15181.0416 28.4396 0.0000 2945.0371 -102040.5086 56.9281 -104985.5458 -102032.3761 56.8062 -73.5904 -33.1616 246665.9526 6.9771 7.0950
TCL: Setting parameter langevintemp to 61
TCL: Setting parameter langevinpistontemp to 61
TCL: Running for 600 steps
ETITLE: TS BOND ANGLE DIHED IMPRP ELECT VDW BOUNDARY MISC KINETIC TOTAL TEMP POTENTIAL TOTAL3 TEMPAVG PRESSURE GPRESSURE VOLUME PRESSAVG GPRESSAVG
ENERGY: 1200 64.7592 217.0890 439.1215 11.2758 -120927.2725 15181.0416 28.4396 0.0000 2944.9444 -102040.6014 56.9263 -104985.5457 -102033.0757 56.9263 -74.4046 -33.0529 246665.9526 -74.4046 -33.0529
ENERGY: 1320 63.6199 212.3633 439.7308 14.4238 -121012.2548 15211.3541 27.0087 0.0000 2958.5721 -102085.1821 57.1898 -105043.7542 -102077.2861 56.9934 -27.0654 9.4652 246580.6077 -12.7380 -12.9830
ENERGY: 1440 61.3912 220.7143 444.2371 12.6679 -121166.7781 15295.4979 29.8423 0.0000 2965.9088 -102136.5186 57.3316 -105102.4273 -102128.9422 57.4407 68.0190 107.8368 246160.2420 -4.2544 -4.3379
ENERGY: 1560 56.4387 216.3519 438.2290 14.4508 -121095.3638 15166.3024 27.0419 0.0000 2986.4481 -102190.1010 57.7286 -105176.5491 -102183.2271 57.5901 -67.6949 -28.2651 246274.6599 8.0308 8.5689
ENERGY: 1680 64.0715 216.2700 439.3062 11.3288 -121127.5035 15132.6015 23.6375 0.0000 2988.6648 -102251.6232 57.7715 -105240.2879 -102244.1532 57.6116 -160.4344 -117.3969 246257.5619 0.9019 0.7950
ENERGY: 1800 58.2634 221.5165 434.9051 13.3039 -121335.9286 15320.5004 29.8174 0.0000 2958.4385 -102299.1834 57.1872 -105257.6219 -102291.3858 57.6768 49.8004 88.4233 245977.8641 13.6527 13.7110
TCL: Setting parameter langevintemp to 62
TCL: Setting parameter langevinpistontemp to 62
TCL: Running for 600 steps
ETITLE: TS BOND ANGLE DIHED IMPRP ELECT VDW BOUNDARY MISC KINETIC TOTAL TEMP POTENTIAL TOTAL3 TEMPAVG PRESSURE GPRESSURE VOLUME PRESSAVG GPRESSAVG
ENERGY: 1800 58.2634 221.5165 434.9051 13.3039 -121335.9286 15320.5004 29.8174 0.0000 2958.3434 -102299.2784 57.1853 -105257.6219 -102291.4562 57.1853 50.9181 88.4267 245977.8641 50.9181 88.4267
ENERGY: 1920 63.6536 222.5994 438.6039 11.2550 -121463.5826 15352.6046 31.4064 0.0000 3031.7711 -102311.6886 58.6047 -105343.4597 -102305.1770 58.0140 149.0578 191.0041 245908.7997 1.1329 1.2220
ENERGY: 2040 60.0003 213.9566 440.5457 14.9753 -121325.8343 15226.0484 30.1497 0.0000 2998.4284 -102341.7298 57.9602 -105340.1582 -102334.5798 58.0603 -125.0478 -84.1692 245966.8616 -9.2488 -9.5070
ENERGY: 2160 61.4390 217.2475 436.5797 12.1145 -121400.1467 15261.3572 27.9944 0.0000 3035.1267 -102348.2877 58.6696 -105383.4143 -102339.6771 58.6202 -57.4277 -17.4860 245948.7222 7.9903 7.6568
ENERGY: 2280 61.1284 219.7500 437.1369 12.9969 -121501.9381 15302.2625 29.4132 0.0000 3045.8672 -102393.3832 58.8772 -105439.2503 -102384.5799 58.7852 -26.0811 13.9642 245625.1192 0.0032 -0.1544
ENERGY: 2400 61.6374 213.9266 439.4266 14.3539 -121459.2213 15224.5413 32.4163 0.0000 3045.6920 -102427.2272 58.8738 -105472.9192 -102419.3587 58.8021 -0.5037 41.4653 245409.7107 -4.3152 -4.4782
TCL: Setting parameter langevintemp to 63
TCL: Setting parameter langevinpistontemp to 63
TCL: Running for 600 steps
ETITLE: TS BOND ANGLE DIHED IMPRP ELECT VDW BOUNDARY MISC KINETIC TOTAL TEMP POTENTIAL TOTAL3 TEMPAVG PRESSURE GPRESSURE VOLUME PRESSAVG GPRESSAVG
ENERGY: 2400 61.6374 213.9266 439.4266 14.3539 -121459.2213 15224.5413 32.4163 0.0000 3045.5957 -102427.3236 58.8719 -105472.9193 -102418.7196 58.8719 0.1545 41.3525 245409.7107 0.1545 41.3525
ENERGY: 2520 59.7142 220.8242 439.2850 12.7358 -121456.1495 15193.3593 30.9570 0.0000 3071.0980 -102428.1760 59.3649 -105499.2740 -102419.2764 59.1382 -116.4391 -76.1664 245770.4668 -12.3352 -12.0215
ENERGY: 2640 64.2537 219.4465 437.8902 14.2108 -121622.7261 15332.9146 29.4808 0.0000 3084.9127 -102439.6169 59.6320 -105524.5296 -102432.0630 59.6098 -29.0490 12.1357 245721.8802 5.5712 5.5866
ENERGY: 2760 59.7988 214.4066 439.5470 12.5974 -121621.9602 15356.9708 27.9945 0.0000 3080.2409 -102430.4041 59.5416 -105510.6450 -102422.1535 59.6198 84.5831 125.1913 245522.9709 0.1002 0.1916
ENERGY: 2880 59.0882 225.4380 439.2617 12.0984 -121615.9273 15311.7549 28.2879 0.0000 3120.5083 -102419.4898 60.3200 -105539.9981 -102410.5388 60.2834 -12.9996 29.2164 245491.2619 5.7978 5.9726
ENERGY: 3000 68.3062 215.9671 436.9941 13.1712 -121686.9933 15362.6564 30.0939 0.0000 3142.3611 -102417.4433 60.7424 -105559.8044 -102407.7814 60.4072 69.4575 108.8702 245202.1315 -13.8706 -13.7151
TCL: Setting parameter langevintemp to 64
TCL: Setting parameter langevinpistontemp to 64
TCL: Running for 600 steps
ETITLE: TS BOND ANGLE DIHED IMPRP ELECT VDW BOUNDARY MISC KINETIC TOTAL TEMP POTENTIAL TOTAL3 TEMPAVG PRESSURE GPRESSURE VOLUME PRESSAVG GPRESSAVG
ENERGY: 3000 68.3062 215.9671 436.9941 13.1712 -121686.9933 15362.6564 30.0939 0.0000 3142.2641 -102417.5403 60.7406 -105559.8044 -102408.9248 60.7406 68.5236 109.0219 245202.1315 68.5236 109.0219
ENERGY: 3120 62.8641 226.1458 436.0372 13.7784 -121695.9556 15350.1467 28.0326 0.0000 3162.7917 -102416.1591 61.1374 -105578.9508 -102406.7777 60.8132 25.5085 67.5397 245253.6224 -15.5463 -15.3392
ENERGY: 3240 66.7834 221.0113 440.4376 12.9105 -121685.2665 15347.0791 28.4648 0.0000 3163.2261 -102405.3537 61.1458 -105568.5798 -102397.0427 61.0798 14.6227 53.8106 245350.2076 1.0671 1.1689
ENERGY: 3360 58.8857 233.0990 436.0404 14.2343 -121603.8010 15271.9104 28.5196 0.0000 3146.2327 -102414.8788 60.8173 -105561.1115 -102406.4687 61.2730 -66.0705 -24.7678 245416.8183 -0.1962 -0.0846
ENERGY: 3480 60.3506 218.4957 438.1596 12.8539 -121686.5201 15324.5442 28.6670 0.0000 3197.9721 -102405.4770 61.8174 -105603.4491 -102396.9291 61.4461 15.2940 56.2617 245125.6305 3.6515 3.9674
ENERGY: 3600 63.4727 222.9600 432.6008 11.7862 -121677.9232 15304.7157 29.6913 0.0000 3195.1446 -102417.5519 61.7628 -105612.6965 -102408.0748 61.5755 -0.1334 40.0144 245106.9680 5.3001 5.5272
TCL: Setting parameter langevintemp to 65
TCL: Setting parameter langevinpistontemp to 65
TCL: Running for 600 steps
ETITLE: TS BOND ANGLE DIHED IMPRP ELECT VDW BOUNDARY MISC KINETIC TOTAL TEMP POTENTIAL TOTAL3 TEMPAVG PRESSURE GPRESSURE VOLUME PRESSAVG GPRESSAVG
ENERGY: 3600 63.4727 222.9600 432.6008 11.7862 -121677.9232 15304.7157 29.6913 0.0000 3195.0437 -102417.6528 61.7608 -105612.6965 -102408.8415 61.7608 -0.3506 40.0678 245106.9680 -0.3506 40.0678
ENERGY: 3720 66.0942 219.8726 436.2119 12.1547 -121544.9012 15152.1672 28.3295 0.0000 3222.1714 -102407.8998 62.2852 -105630.0711 -102398.2925 62.0634 -194.9759 -154.1731 244851.5925 11.3510 11.1653
ENERGY: 3840 64.5201 227.2985 435.1795 10.7789 -121744.1081 15342.2984 29.6130 0.0000 3228.2125 -102406.2072 62.4020 -105634.4197 -102397.2624 62.0574 -33.6792 4.7260 245210.2951 -26.9023 -26.9694
ENERGY: 3960 67.4166 221.4525 439.4024 11.1781 -121601.3354 15190.6867 30.1843 0.0000 3231.4043 -102409.6106 62.4637 -105641.0149 -102400.2736 62.0893 -89.7721 -48.6653 245110.4413 -10.5467 -10.6164
ENERGY: 4080 59.6529 215.2799 434.6016 12.2074 -121648.7188 15244.7408 28.3534 0.0000 3252.0193 -102401.8636 62.8622 -105653.8828 -102392.6288 62.6797 -61.7146 -21.4267 245217.7598 -7.7173 -7.4088
ENERGY: 4200 64.4491 223.6801 432.4553 9.8876 -121697.5427 15263.3772 28.0003 0.0000 3271.7126 -102403.9805 63.2428 -105675.6932 -102395.2321 62.8104 -36.4063 4.9343 244810.6470 9.9774 10.1247
TCL: Setting parameter langevintemp to 66
TCL: Setting parameter langevinpistontemp to 66
TCL: Running for 600 steps
ETITLE: TS BOND ANGLE DIHED IMPRP ELECT VDW BOUNDARY MISC KINETIC TOTAL TEMP POTENTIAL TOTAL3 TEMPAVG PRESSURE GPRESSURE VOLUME PRESSAVG GPRESSAVG
ENERGY: 4200 64.4491 223.6801 432.4553 9.8876 -121697.5427 15263.3772 28.0003 0.0000 3271.6104 -102404.0828 63.2409 -105675.6932 -102394.9835 63.2409 -35.1618 4.8167 244810.6470 -35.1618 4.8167
ENERGY: 4320 60.6511 225.5978 432.5782 11.9309 -121688.5014 15303.0787 27.0107 0.0000 3249.9466 -102377.7072 62.8221 -105627.6538 -102369.5918 63.1152 47.2020 89.1191 244952.4617 3.4255 3.6856
ENERGY: 4440 66.6061 225.3703 432.4463 11.5359 -121634.3617 15210.2587 28.0034 0.0000 3273.4606 -102386.6805 63.2766 -105660.1411 -102377.7673 62.9804 -103.7598 -62.5080 244791.8370 17.4645 17.5279
ENERGY: 4560 65.9651 210.1583 432.7763 13.1331 -121647.4141 15260.4126 27.2312 0.0000 3260.7239 -102377.0135 63.0304 -105637.7374 -102367.8392 63.3562 -49.7894 -8.9341 244821.9260 7.0722 6.9352
ENERGY: 4680 64.3050 224.8553 437.7357 12.2386 -121614.6462 15179.3365 27.4168 0.0000 3282.2672 -102386.4912 63.4469 -105668.7584 -102377.6802 63.7257 -182.7758 -143.0855 244866.0770 10.8976 10.8824
ENERGY: 4800 66.9344 223.1968 436.7818 14.1685 -121684.1282 15232.1484 30.1357 0.0000 3270.8044 -102409.9582 63.2253 -105680.7627 -102401.3468 63.5517 -135.8599 -96.0549 244580.1285 -2.5382 -2.2876
TCL: Setting parameter langevintemp to 67
TCL: Setting parameter langevinpistontemp to 67
TCL: Running for 600 steps
ETITLE: TS BOND ANGLE DIHED IMPRP ELECT VDW BOUNDARY MISC KINETIC TOTAL TEMP POTENTIAL TOTAL3 TEMPAVG PRESSURE GPRESSURE VOLUME PRESSAVG GPRESSAVG
ENERGY: 4800 66.9344 223.1968 436.7818 14.1685 -121684.1283 15232.1484 30.1357 0.0000 3270.7026 -102410.0601 63.2233 -105680.7627 -102400.9482 63.2233 -136.2609 -96.1495 244580.1285 -136.2609 -96.1495
ENERGY: 4920 62.3066 215.8023 430.7067 11.9584 -121629.9954 15184.1727 28.8820 0.0000 3321.6182 -102374.5484 64.2075 -105696.1666 -102364.6051 63.9063 -152.1029 -110.5031 244566.2635 6.3803 6.2449
ENERGY: 5040 61.7016 220.4229 430.5161 11.6042 -121686.6296 15259.3212 29.8172 0.0000 3311.1314 -102362.1151 64.0048 -105673.2464 -102351.5263 64.2916 3.7253 42.5106 244479.0124 -0.0118 0.0425
ENERGY: 5160 65.6466 220.3593 436.4200 13.8453 -121719.3378 15260.0032 32.1416 0.0000 3329.1305 -102361.7914 64.3527 -105690.9219 -102351.0185 64.3606 -87.6346 -47.2556 244766.7219 -8.3634 -8.0168
ENERGY: 5280 61.8016 220.5002 431.2828 13.0315 -121606.5197 15159.2117 26.1477 0.0000 3331.6705 -102362.8738 64.4018 -105694.5443 -102352.8649 64.3927 -165.6143 -124.4948 244769.0400 -9.7330 -9.7899
ENERGY: 5400 61.2699 224.7831 433.9259 13.4266 -121893.5475 15404.2442 26.7832 0.0000 3369.7757 -102359.3390 65.1384 -105729.1146 -102349.6685 64.9674 156.6559 196.8694 244296.4268 6.0918 6.3732
TCL: Setting parameter langevintemp to 68
TCL: Setting parameter langevinpistontemp to 68
TCL: Running for 600 steps
ETITLE: TS BOND ANGLE DIHED IMPRP ELECT VDW BOUNDARY MISC KINETIC TOTAL TEMP POTENTIAL TOTAL3 TEMPAVG PRESSURE GPRESSURE VOLUME PRESSAVG GPRESSAVG
ENERGY: 5400 61.2699 224.7831 433.9259 13.4266 -121893.5475 15404.2442 26.7832 0.0000 3369.6717 -102359.4430 65.1364 -105729.1146 -102350.4193 65.1364 157.1851 196.9534 244296.4268 157.1851 196.9534
ENERGY: 5520 60.8419 224.9559 432.4692 10.6013 -121794.9091 15338.3569 29.0368 0.0000 3355.5139 -102343.1332 64.8627 -105698.6472 -102334.6579 64.9873 100.5579 138.6765 244421.1536 -6.5003 -6.2846
ENERGY: 5640 62.1889 221.8585 435.5335 12.8404 -121729.4620 15268.2682 30.6265 0.0000 3380.9600 -102317.1859 65.3546 -105698.1459 -102308.0497 65.4066 -39.0642 5.4425 244389.3661 -0.6912 -0.5864
ENERGY: 5760 66.9107 221.1149 430.6108 13.0206 -121874.4515 15384.3113 28.2854 0.0000 3410.9434 -102319.2545 65.9342 -105730.1979 -102309.5622 65.6281 162.7523 202.8948 243914.6339 9.4367 9.2429
ENERGY: 5880 63.3255 219.2855 437.9636 12.6820 -121675.1413 15182.6923 31.3890 0.0000 3415.0138 -102312.7896 66.0129 -105727.8034 -102303.0851 65.9024 -84.8987 -43.4412 244108.4670 3.7960 4.0435
ENERGY: 6000 62.0512 225.1942 435.9283 12.2151 -121759.1427 15253.7429 25.4894 0.0000 3441.4477 -102303.0740 66.5238 -105744.5217 -102292.9281 66.0128 -139.0112 -99.1635 244313.9421 8.6673 8.7728
TCL: Setting parameter langevintemp to 69
TCL: Setting parameter langevinpistontemp to 69
TCL: Running for 600 steps
ETITLE: TS BOND ANGLE DIHED IMPRP ELECT VDW BOUNDARY MISC KINETIC TOTAL TEMP POTENTIAL TOTAL3 TEMPAVG PRESSURE GPRESSURE VOLUME PRESSAVG GPRESSAVG
ENERGY: 6000 62.0512 225.1942 435.9283 12.2151 -121759.1427 15253.7429 25.4894 0.0000 3441.3427 -102303.1790 66.5218 -105744.5217 -102293.4989 66.5218 -139.9450 -99.1752 244313.9421 -139.9450 -99.1752
ENERGY: 6120 64.4414 221.8046 435.6325 12.3823 -121780.3315 15295.5285 28.5363 0.0000 3416.2614 -102305.7446 66.0370 -105722.0060 -102296.0317 65.9711 37.5962 80.2374 244071.2538 19.7828 19.8260
ENERGY: 6240 71.6687 225.6618 435.7368 13.3652 -121722.2748 15213.5129 25.9382 0.0000 3445.5572 -102290.8341 66.6033 -105736.3913 -102280.6710 66.3227 -156.0624 -113.0522 244369.0610 -2.9274 -2.5595
ENERGY: 6360 59.5168 223.4784 435.4874 14.1973 -121796.3052 15273.5870 27.6022 0.0000 3451.6918 -102310.7442 66.7219 -105762.4360 -102300.5212 66.4768 -20.3685 17.9243 244215.6704 1.6381 1.5038
ENERGY: 6480 68.6543 220.6713 439.5146 13.9632 -121848.0062 15306.5697 24.7950 0.0000 3452.9610 -102320.8771 66.7464 -105773.8381 -102310.3862 66.3254 -32.9551 9.4459 244024.9285 -7.7459 -7.6130
ENERGY: 6600 61.1816 221.7219 435.6390 12.3324 -121706.6111 15198.8916 29.3015 0.0000 3439.3657 -102308.1775 66.4836 -105747.5432 -102298.8358 66.3219 7.7588 48.3329 244040.2398 -8.7268 -8.8742
TCL: Setting parameter langevintemp to 70
TCL: Setting parameter langevinpistontemp to 70
TCL: Running for 600 steps
ETITLE: TS BOND ANGLE DIHED IMPRP ELECT VDW BOUNDARY MISC KINETIC TOTAL TEMP POTENTIAL TOTAL3 TEMPAVG PRESSURE GPRESSURE VOLUME PRESSAVG GPRESSAVG
ENERGY: 6600 61.1816 221.7219 435.6390 12.3324 -121706.6111 15198.8916 29.3015 0.0000 3439.2588 -102308.2844 66.4815 -105747.5432 -102298.9529 66.4815 7.8830 48.3514 244040.2398 7.8830 48.3514
ENERGY: 6720 64.3412 227.1647 435.8978 15.7083 -121785.1616 15285.2443 28.8580 0.0000 3453.6432 -102274.3041 66.7596 -105727.9473 -102265.0466 66.8763 32.9433 74.9173 244180.2894 7.3338 7.6091
ENERGY: 6840 73.9111 216.1354 435.6761 14.9487 -121723.9324 15202.9118 28.8661 0.0000 3502.1455 -102249.3376 67.6971 -105751.4831 -102239.4079 67.2946 -149.5308 -106.2280 244220.3492 -4.4627 -4.5030
ENERGY: 6960 61.9174 225.6326 432.3698 11.7493 -121804.7697 15295.3350 28.7912 0.0000 3523.9943 -102224.9802 68.1195 -105748.9745 -102214.9298 67.8360 86.2258 130.5525 243819.8570 -7.8613 -7.7008
ENERGY: 7080 70.9413 231.7648 434.1174 10.7537 -121766.1387 15274.4809 28.0408 0.0000 3498.6981 -102217.3417 67.6305 -105716.0397 -102207.2365 67.4538 -113.9517 -70.3873 243819.2345 -19.5028 -19.4062
ENERGY: 7200 64.3606 216.8541 437.8492 14.5028 -121635.5227 15164.7434 24.7149 0.0000 3531.9369 -102180.5608 68.2730 -105712.4977 -102170.4959 67.9685 -129.2821 -88.6497 243997.7234 -1.4014 -1.4987
TCL: Setting parameter langevintemp to 71
TCL: Setting parameter langevinpistontemp to 71
TCL: Running for 600 steps
ETITLE: TS BOND ANGLE DIHED IMPRP ELECT VDW BOUNDARY MISC KINETIC TOTAL TEMP POTENTIAL TOTAL3 TEMPAVG PRESSURE GPRESSURE VOLUME PRESSAVG GPRESSAVG
ENERGY: 7200 64.3606 216.8541 437.8492 14.5028 -121635.5227 15164.7434 24.7149 0.0000 3531.8273 -102180.6704 68.2709 -105712.4977 -102170.6527 68.2709 -129.2999 -88.6364 243997.7234 -129.2999 -88.6364
ENERGY: 7320 68.9885 224.5570 439.8110 14.5735 -121674.7376 15181.7874 27.7791 0.0000 3545.5456 -102171.6955 68.5361 -105717.2410 -102161.3863 68.1727 -88.1291 -47.0990 244171.9429 -4.1290 -4.4457
ENERGY: 7440 70.4219 220.5362 440.2402 12.6119 -121646.6481 15190.8916 26.8546 0.0000 3553.0415 -102132.0500 68.6810 -105685.0915 -102121.9243 68.4515 -89.4726 -46.7199 244265.0367 5.1110 5.1957
ENERGY: 7560 66.7588 233.2755 437.4051 10.4984 -121798.4880 15302.3198 29.2886 0.0000 3559.9010 -102159.0407 68.8136 -105718.9417 -102147.9347 68.4022 54.0369 97.2985 243833.9034 4.6714 5.0276
ENERGY: 7680 66.9494 234.1117 433.5541 12.1891 -121705.1555 15254.1411 25.6311 0.0000 3527.8126 -102150.7663 68.1933 -105678.5789 -102139.2996 68.8188 59.6365 100.2583 243803.4474 -3.8869 -3.7839
ENERGY: 7800 67.7395 225.1775 435.8344 14.7335 -121682.7887 15179.9406 28.5211 0.0000 3572.7534 -102158.0886 69.0620 -105730.8420 -102148.4328 68.9935 -127.2125 -86.7280 244102.0024 -2.9301 -2.7297
TCL: Setting parameter langevintemp to 72
TCL: Setting parameter langevinpistontemp to 72
TCL: Running for 600 steps
ETITLE: TS BOND ANGLE DIHED IMPRP ELECT VDW BOUNDARY MISC KINETIC TOTAL TEMP POTENTIAL TOTAL3 TEMPAVG PRESSURE GPRESSURE VOLUME PRESSAVG GPRESSAVG
ENERGY: 7800 67.7395 225.1775 435.8344 14.7335 -121682.7887 15179.9406 28.5211 0.0000 3572.6419 -102158.2001 69.0599 -105730.8420 -102147.8896 69.0599 -127.8765 -86.8365 244102.0024 -127.8765 -86.8365
ENERGY: 7920 71.8529 233.4112 436.9240 14.3949 -121549.5538 15092.8423 25.9503 0.0000 3544.5543 -102129.6240 68.5169 -105674.1782 -102120.4743 69.0081 -218.0281 -175.4984 243885.9764 -7.7511 -7.6584
ENERGY: 8040 62.7552 221.1359 434.8410 14.3057 -121792.4364 15302.5739 28.7050 0.0000 3606.9588 -102121.1609 69.7232 -105728.1197 -102111.0754 69.5950 135.1280 178.0498 243540.5360 -14.4181 -13.8735
ENERGY: 8160 64.6098 236.0831 435.1309 13.9723 -121752.7610 15265.7801 28.7769 0.0000 3583.0468 -102125.3613 69.2610 -105708.4082 -102115.2885 69.4168 40.7567 83.1339 243480.7002 0.7419 0.7022
ENERGY: 8280 62.3666 230.5339 434.8150 12.3012 -121766.3211 15286.4118 30.2256 0.0000 3604.8589 -102104.8080 69.6826 -105709.6670 -102094.8222 69.6466 -26.7349 15.6079 243759.7731 -3.6781 -3.5852
ENERGY: 8400 70.7338 225.4980 438.2675 13.0568 -121634.7821 15174.2292 28.8047 0.0000 3616.6368 -102067.5554 69.9103 -105684.1922 -102055.3799 70.1644 -44.2160 -3.8120 243682.9101 17.9349 18.0813
TCL: Setting parameter langevintemp to 73
TCL: Setting parameter langevinpistontemp to 73
TCL: Running for 600 steps
ETITLE: TS BOND ANGLE DIHED IMPRP ELECT VDW BOUNDARY MISC KINETIC TOTAL TEMP POTENTIAL TOTAL3 TEMPAVG PRESSURE GPRESSURE VOLUME PRESSAVG GPRESSAVG
ENERGY: 8400 70.7338 225.4980 438.2675 13.0568 -121634.7820 15174.2292 28.8047 0.0000 3616.5261 -102067.6661 69.9081 -105684.1922 -102057.2649 69.9081 -44.6253 -3.5023 243682.9101 -44.6253 -3.5023
ENERGY: 8520 66.4319 229.2000 437.1317 15.9125 -121621.1846 15161.1941 27.2633 0.0000 3633.5073 -102050.5437 70.2364 -105684.0510 -102039.3730 70.2832 -117.0462 -74.6282 243774.6206 10.9969 10.9960
ENERGY: 8640 69.7087 229.8531 437.4417 12.5261 -121557.7143 15138.7995 27.1180 0.0000 3632.2633 -102010.0038 70.2123 -105642.2672 -101998.8186 70.3287 -100.0005 -56.7386 244133.7204 -0.0470 -0.0257
ENERGY: 8760 66.2011 231.5259 434.5254 12.4416 -121759.2176 15320.3613 27.7495 0.0000 3684.8556 -101981.5572 71.2290 -105666.4128 -101971.4897 70.9157 76.8173 118.4342 243719.2366 -10.5673 -10.5502
ENERGY: 8880 69.5884 229.1129 431.2128 12.0227 -121475.7786 15065.1434 27.2889 0.0000 3661.8853 -101979.5242 70.7849 -105641.4095 -101969.8807 70.9706 -242.0071 -201.3178 244003.5643 1.5295 1.5548
ENERGY: 9000 61.6232 232.7809 436.0587 11.5934 -121631.1884 15166.1129 26.1776 0.0000 3700.0844 -101996.7572 71.5233 -105696.8417 -101986.5150 70.8743 -98.2455 -56.2734 243654.9901 4.8304 4.9945
TCL: Setting parameter langevintemp to 74
TCL: Setting parameter langevinpistontemp to 74
TCL: Running for 600 steps
ETITLE: TS BOND ANGLE DIHED IMPRP ELECT VDW BOUNDARY MISC KINETIC TOTAL TEMP POTENTIAL TOTAL3 TEMPAVG PRESSURE GPRESSURE VOLUME PRESSAVG GPRESSAVG
ENERGY: 9000 61.6232 232.7809 436.0587 11.5934 -121631.1884 15166.1129 26.1776 0.0000 3699.9704 -101996.8713 71.5211 -105696.8416 -101986.1713 71.5211 -97.5039 -56.3839 243654.9901 -97.5039 -56.3839
ENERGY: 9120 63.1148 231.3154 441.7711 16.8774 -121657.8686 15180.1815 29.7730 0.0000 3694.0499 -102000.7856 71.4067 -105694.8356 -101990.1852 70.8543 -42.0902 -1.4268 243531.7514 0.2691 0.6496
ENERGY: 9240 68.1545 231.7324 436.3933 9.5359 -121538.8627 15098.4919 28.3539 0.0000 3695.8485 -101970.3522 71.4415 -105666.2008 -101960.1819 71.3731 -103.3756 -62.5949 243547.4706 3.9913 4.3549
ENERGY: 9360 68.5034 242.6347 432.1970 15.6853 -121699.2859 15275.8566 25.7236 0.0000 3667.5416 -101971.1437 70.8943 -105638.6853 -101960.8954 71.5277 -0.8019 39.9590 243501.3635 -5.9290 -5.6569
ENERGY: 9480 71.7239 235.3178 435.1228 12.3166 -121662.7785 15207.6855 27.5984 0.0000 3700.5198 -101972.4937 71.5318 -105673.0134 -101962.4139 71.5979 0.6303 40.2265 243804.1294 -8.7672 -8.7984
ENERGY: 9600 66.4002 222.5597 432.8345 13.8789 -121591.8175 15124.5980 28.5967 0.0000 3708.8321 -101994.1176 71.6924 -105702.9497 -101983.4829 71.5424 -111.6830 -72.5298 243713.7658 1.5368 1.3712
TCL: Setting parameter langevintemp to 75
TCL: Setting parameter langevinpistontemp to 75
TCL: Running for 600 steps
ETITLE: TS BOND ANGLE DIHED IMPRP ELECT VDW BOUNDARY MISC KINETIC TOTAL TEMP POTENTIAL TOTAL3 TEMPAVG PRESSURE GPRESSURE VOLUME PRESSAVG GPRESSAVG
ENERGY: 9600 66.4002 222.5597 432.8345 13.8789 -121591.8175 15124.5980 28.5967 0.0000 3708.7184 -101994.2312 71.6902 -105702.9496 -101983.2286 71.6902 -111.7109 -72.6457 243713.7658 -111.7109 -72.6457
ENERGY: 9720 64.8330 236.3497 435.6891 11.6843 -121656.6160 15213.9560 27.2366 0.0000 3719.1033 -101947.7641 71.8910 -105666.8674 -101936.7533 72.1573 5.3845 47.0613 243653.8123 0.9284 0.9136
ENERGY: 9840 67.3597 231.3368 433.9358 11.3147 -121568.8053 15143.8610 29.1128 0.0000 3723.5006 -101928.3839 71.9760 -105651.8845 -101918.7137 72.1778 -84.9079 -44.6602 243906.2935 23.4280 23.0901
ENERGY: 9960 65.9873 241.9106 437.7273 12.9391 -121617.5905 15190.6414 25.8351 0.0000 3748.7660 -101893.7837 72.4644 -105642.5497 -101884.0453 72.6789 -23.5634 18.0061 243617.0800 -0.8361 -0.8230
ENERGY: 10080 72.3356 233.8212 433.1999 12.5122 -121431.6787 15022.0514 28.0280 0.0000 3750.8061 -101878.9244 72.5038 -105629.7305 -101867.2130 72.6146 -236.1213 -191.9743 243769.5313 8.1469 8.0301
ENERGY: 10200 69.7625 228.4167 437.2261 16.4414 -121636.9617 15193.8596 26.3570 0.0000 3769.3636 -101895.5349 72.8625 -105664.8985 -101884.9710 72.8543 -72.0747 -31.3455 243760.9107 12.6371 12.6144
TCL: Setting parameter langevintemp to 76
TCL: Setting parameter langevinpistontemp to 76
TCL: Running for 600 steps
ETITLE: TS BOND ANGLE DIHED IMPRP ELECT VDW BOUNDARY MISC KINETIC TOTAL TEMP POTENTIAL TOTAL3 TEMPAVG PRESSURE GPRESSURE VOLUME PRESSAVG GPRESSAVG
ENERGY: 10200 69.7625 228.4167 437.2261 16.4414 -121636.9617 15193.8596 26.3570 0.0000 3769.2453 -101895.6532 72.8602 -105664.8985 -101884.8227 72.8602 -72.1236 -31.4070 243760.9107 -72.1236 -31.4070
ENERGY: 10320 72.3178 231.4250 433.4068 15.9769 -121559.4783 15109.8760 28.6398 0.0000 3781.2951 -101886.5407 73.0932 -105667.8358 -101875.1164 72.9197 -140.8907 -98.5260 243548.7275 -8.9005 -8.4381
ENERGY: 10440 66.2650 233.6353 445.3735 14.5771 -121659.5011 15210.5880 26.9187 0.0000 3795.7332 -101866.4103 73.3723 -105662.1435 -101855.1719 73.2883 31.2820 68.5825 243566.8744 -21.7910 -21.8027
ENERGY: 10560 63.9515 236.1141 434.7711 14.5675 -121722.7234 15276.1349 31.4679 0.0000 3816.4109 -101849.3056 73.7720 -105665.7164 -101839.5033 73.4475 155.4285 196.1967 243170.1684 -7.5813 -7.5307
ENERGY: 10680 68.4332 236.0054 438.4737 14.6520 -121570.5664 15136.5316 28.0304 0.0000 3829.2718 -101819.1683 74.0206 -105648.4400 -101809.3166 73.9816 -40.2690 0.8760 243702.7438 -11.9738 -11.8973
ENERGY: 10800 61.7267 233.6206 445.8804 14.3783 -121657.6541 15283.8100 28.6176 0.0000 3794.4797 -101795.1407 73.3480 -105589.6204 -101784.3025 74.0031 89.4099 131.2060 243553.5117 -0.3667 0.0209
TCL: Setting parameter langevintemp to 77
TCL: Setting parameter langevinpistontemp to 77
TCL: Running for 600 steps
ETITLE: TS BOND ANGLE DIHED IMPRP ELECT VDW BOUNDARY MISC KINETIC TOTAL TEMP POTENTIAL TOTAL3 TEMPAVG PRESSURE GPRESSURE VOLUME PRESSAVG GPRESSAVG
ENERGY: 10800 61.7267 233.6206 445.8804 14.3783 -121657.6541 15283.8100 28.6176 0.0000 3794.3625 -101795.2579 73.3458 -105589.6204 -101784.9267 73.3458 90.9187 131.2436 243553.5117 90.9187 131.2436
ENERGY: 10920 74.2274 229.8274 439.2726 13.4916 -121550.9482 15141.6991 28.3417 0.0000 3857.3551 -101766.7332 74.5634 -105624.0884 -101756.4745 74.2862 -55.0457 -12.9595 243554.8399 10.1133 10.3939
ENERGY: 11040 68.6262 242.4814 434.7774 12.4178 -121546.7718 15118.1657 29.6740 0.0000 3926.6346 -101713.9947 75.9026 -105640.6293 -101701.7279 75.1760 20.3499 59.5515 243567.9411 0.9585 0.9174
ENERGY: 11160 65.9100 236.3719 437.8112 15.1562 -121523.4787 15188.9368 28.9637 0.0000 3876.1316 -101674.1972 74.9264 -105550.3288 -101663.5122 75.1817 32.9183 77.3422 243681.3750 -5.0413 -4.8274
ENERGY: 11280 75.8739 232.0835 442.4712 14.6701 -121396.2932 15026.3709 27.4905 0.0000 3907.7166 -101669.6163 75.5369 -105577.3330 -101659.0195 75.7458 -171.1749 -128.2550 243617.0087 -0.3913 -0.2277
ENERGY: 11400 67.2738 234.4052 435.2380 13.4612 -121516.9221 15186.6899 26.3184 0.0000 3890.4590 -101663.0766 75.2033 -105553.5356 -101651.2600 75.6213 39.9826 84.7728 243540.5030 -12.5313 -12.4363
TCL: Setting parameter langevintemp to 78
TCL: Setting parameter langevinpistontemp to 78
TCL: Running for 600 steps
ETITLE: TS BOND ANGLE DIHED IMPRP ELECT VDW BOUNDARY MISC KINETIC TOTAL TEMP POTENTIAL TOTAL3 TEMPAVG PRESSURE GPRESSURE VOLUME PRESSAVG GPRESSAVG
ENERGY: 11400 67.2738 234.4052 435.2380 13.4612 -121516.9221 15186.6899 26.3184 0.0000 3890.3350 -101663.2007 75.2009 -105553.5356 -101652.4353 75.2009 42.2399 84.9379 243540.5030 42.2399 84.9379
ENERGY: 11520 67.6199 250.9425 438.4373 13.5281 -121442.8425 15080.3642 28.1781 0.0000 3910.3956 -101653.3767 75.5887 -105563.7723 -101642.1978 75.7024 -112.1632 -68.3807 243366.7448 -7.0979 -7.2518
ENERGY: 11640 69.7681 236.7260 435.8031 14.4967 -121450.4224 15066.1975 27.1864 0.0000 3929.8109 -101670.4337 75.9640 -105600.2446 -101659.6131 75.8886 -121.7792 -77.6742 243306.8933 -12.1734 -12.4418
ENERGY: 11760 64.7752 238.2959 438.7772 11.8393 -121514.9351 15159.2780 29.5578 0.0000 3896.2163 -101676.1954 75.3146 -105572.4117 -101666.6279 75.5451 -11.9580 32.5201 243517.0307 -5.4647 -5.5488
ENERGY: 11880 73.3851 244.0683 434.7091 12.4324 -121427.1486 15061.5150 25.1248 0.0000 3929.5755 -101646.3384 75.9594 -105575.9139 -101635.5265 76.0923 -101.0187 -60.6444 243568.3712 -7.4127 -7.4922
ENERGY: 12000 70.6779 228.0158 437.0544 9.8628 -121427.2361 15087.5767 26.6255 0.0000 3943.6057 -101623.8172 76.2307 -105567.4230 -101610.7531 76.2792 -130.2811 -88.0627 243554.1972 -14.6427 -14.4321
TCL: Setting parameter langevintemp to 79
TCL: Setting parameter langevinpistontemp to 79
TCL: Running for 600 steps
ETITLE: TS BOND ANGLE DIHED IMPRP ELECT VDW BOUNDARY MISC KINETIC TOTAL TEMP POTENTIAL TOTAL3 TEMPAVG PRESSURE GPRESSURE VOLUME PRESSAVG GPRESSAVG
ENERGY: 12000 70.6779 228.0158 437.0544 9.8628 -121427.2361 15087.5767 26.6255 0.0000 3943.4852 -101623.9378 76.2283 -105567.4229 -101612.8523 76.2283 -128.8273 -87.7926 243554.1972 -128.8273 -87.7926
ENERGY: 12120 66.4499 241.3289 433.5237 14.3371 -121413.8219 15062.6524 31.0221 0.0000 3942.2622 -101622.2456 76.2047 -105564.5078 -101610.3315 76.4067 -71.0757 -28.9570 243247.9224 2.9577 2.9156
ENERGY: 12240 76.5256 234.8029 437.6350 14.2850 -121468.4735 15108.8915 31.8797 0.0000 3950.7540 -101613.6999 76.3688 -105564.4539 -101603.1654 76.3840 -47.6174 -9.9599 243058.0906 5.4751 5.5878
ENERGY: 12360 71.6897 239.0195 438.9956 13.0012 -121534.7075 15162.1453 31.0028 0.0000 3970.8602 -101607.9931 76.7575 -105578.8533 -101596.7381 76.6045 25.4667 68.1835 243172.4209 14.4955 14.4336
ENERGY: 12480 70.4531 241.7851 432.0359 13.9755 -121430.8420 15093.4137 28.3412 0.0000 3957.6229 -101593.2146 76.5016 -105550.8375 -101581.8183 77.0944 -43.5063 -0.5839 243275.1151 15.8157 15.5759
ENERGY: 12600 68.7210 240.3889 435.6686 11.9488 -121748.3848 15348.7426 30.8041 0.0000 4011.3657 -101600.7451 77.5405 -105612.1109 -101588.1411 76.9018 280.4913 321.3617 243003.2270 -10.7206 -10.9357
TCL: Setting parameter langevintemp to 80
TCL: Setting parameter langevinpistontemp to 80
TCL: Running for 600 steps
ETITLE: TS BOND ANGLE DIHED IMPRP ELECT VDW BOUNDARY MISC KINETIC TOTAL TEMP POTENTIAL TOTAL3 TEMPAVG PRESSURE GPRESSURE VOLUME PRESSAVG GPRESSAVG
ENERGY: 12600 68.7210 240.3889 435.6686 11.9488 -121748.3848 15348.7426 30.8041 0.0000 4011.2439 -101600.8669 77.5381 -105612.1109 -101589.2462 77.5381 279.0762 321.5124 243003.2270 279.0762 321.5124
ENERGY: 12720 65.6295 244.9324 437.9200 14.2619 -121280.2827 14897.6717 32.3580 0.0000 4007.6851 -101579.8241 77.4693 -105587.5092 -101567.2754 77.1346 -327.0089 -287.8290 243779.2413 21.8827 22.0006
ENERGY: 12840 63.1471 239.1975 436.2727 12.0348 -121433.4571 15120.7113 29.6588 0.0000 3983.9366 -101548.4983 77.0103 -105532.4349 -101535.4107 77.3937 67.7719 107.3687 243112.8913 6.7505 6.3972
ENERGY: 12960 68.2635 245.2088 436.8950 13.8468 -121529.0380 15185.3575 30.1334 0.0000 4003.9749 -101545.3582 77.3976 -105549.3330 -101534.4977 77.2929 138.6762 178.5743 242933.7700 -12.5315 -12.8413
ENERGY: 13080 74.7858 239.4355 441.0877 14.1218 -121312.8623 14958.8204 28.7629 0.0000 4003.4885 -101552.3596 77.3882 -105555.8481 -101540.2655 77.6980 -242.6531 -202.5603 243664.2036 -3.4982 -3.6761
ENERGY: 13200 65.5844 240.7525 437.6460 13.4239 -121568.9037 15188.7971 31.4727 0.0000 4049.0076 -101542.2195 78.2681 -105591.2271 -101530.8496 77.5564 47.3105 86.3211 243084.1318 -8.8065 -8.6806
TCL: Setting parameter langevintemp to 81
TCL: Setting parameter langevinpistontemp to 81
TCL: Running for 600 steps
ETITLE: TS BOND ANGLE DIHED IMPRP ELECT VDW BOUNDARY MISC KINETIC TOTAL TEMP POTENTIAL TOTAL3 TEMPAVG PRESSURE GPRESSURE VOLUME PRESSAVG GPRESSAVG
ENERGY: 13200 65.5844 240.7525 437.6460 13.4239 -121568.9037 15188.7971 31.4727 0.0000 4048.8839 -101542.3432 78.2657 -105591.2270 -101530.9358 78.2657 46.6930 86.2637 243084.1318 46.6930 86.2637
ENERGY: 13320 81.0926 234.3124 443.3682 14.9587 -121351.8826 14997.1197 29.7867 0.0000 4039.6772 -101511.5671 78.0877 -105551.2443 -101499.7092 78.0403 -247.8552 -209.3033 243175.3818 -6.2631 -6.5728
ENERGY: 13440 71.4697 244.2722 441.8754 13.1864 -121499.4398 15162.5406 27.4811 0.0000 4055.8942 -101482.7202 78.4012 -105538.6144 -101470.8879 78.1998 -9.0706 33.3308 243331.4339 14.6483 14.4305
ENERGY: 13560 79.6692 239.1213 438.6711 14.7462 -121418.0077 15055.6789 27.9632 0.0000 4079.2840 -101482.8737 78.8533 -105562.1578 -101470.9381 78.2360 -150.2874 -112.2938 242890.2855 27.4372 27.3311
ENERGY: 13680 67.2620 245.5048 435.9505 12.4988 -121454.3283 15105.3214 28.0749 0.0000 4104.4958 -101455.2201 79.3407 -105559.7159 -101444.1283 78.7434 -96.3312 -57.7591 243029.2573 -4.1073 -4.1370
ENERGY: 13800 72.8579 245.2542 442.5433 11.8256 -121454.9207 15128.7881 28.4915 0.0000 4082.6470 -101442.5129 78.9184 -105525.1600 -101430.3451 78.9751 51.9009 91.9303 243098.1167 -10.9951 -10.9878
TCL: Setting parameter langevintemp to 82
TCL: Setting parameter langevinpistontemp to 82
TCL: Running for 600 steps
ETITLE: TS BOND ANGLE DIHED IMPRP ELECT VDW BOUNDARY MISC KINETIC TOTAL TEMP POTENTIAL TOTAL3 TEMPAVG PRESSURE GPRESSURE VOLUME PRESSAVG GPRESSAVG
ENERGY: 13800 72.8579 245.2542 442.5433 11.8256 -121454.9207 15128.7881 28.4915 0.0000 4082.5215 -101442.6385 78.9159 -105525.1600 -101431.0327 78.9159 51.2980 91.9380 243098.1167 51.2980 91.9380
ENERGY: 13920 74.9921 243.7354 439.0425 11.8611 -121410.8286 15066.5448 30.4856 0.0000 4124.8629 -101419.3040 79.7344 -105544.1669 -101408.5682 79.1552 -106.5029 -65.7827 242871.1346 5.3810 5.6471
ENERGY: 14040 68.6661 255.8464 434.1948 14.1959 -121409.7528 15097.8971 27.4692 0.0000 4126.5178 -101384.9656 79.7664 -105511.4834 -101374.2066 80.0000 18.6319 58.5218 242832.0004 -5.6587 -5.9477
ENERGY: 14160 74.8606 249.8745 439.3868 11.3393 -121380.4917 15052.2733 31.9776 0.0000 4145.3399 -101375.4397 80.1302 -105520.7796 -101364.5107 79.9915 -11.2746 28.4087 242845.1902 -13.0260 -12.9843
ENERGY: 14280 75.3683 243.3084 438.6514 14.2905 -121493.9696 15205.9841 24.9800 0.0000 4144.9499 -101346.4369 80.1227 -105491.3868 -101334.1216 79.7856 86.9262 126.9516 242885.7308 -1.2275 -1.4390
ENERGY: 14400 71.5656 255.1458 434.3814 13.8032 -121273.8405 14935.8508 30.6827 0.0000 4199.7370 -101332.6739 81.1817 -105532.4110 -101321.0957 80.5635 -240.8272 -197.7763 243191.4699 -22.1016 -22.1203
TCL: Setting parameter langevintemp to 83
TCL: Setting parameter langevinpistontemp to 83
TCL: Running for 600 steps
ETITLE: TS BOND ANGLE DIHED IMPRP ELECT VDW BOUNDARY MISC KINETIC TOTAL TEMP POTENTIAL TOTAL3 TEMPAVG PRESSURE GPRESSURE VOLUME PRESSAVG GPRESSAVG
ENERGY: 14400 71.5656 255.1458 434.3814 13.8032 -121273.8405 14935.8508 30.6827 0.0000 4199.6091 -101332.8019 81.1793 -105532.4110 -101320.7113 81.1793 -240.3659 -197.9099 243191.4699 -240.3659 -197.9099
ENERGY: 14520 64.9602 240.8849 440.1315 16.0702 -121454.6018 15153.5451 30.5576 0.0000 4178.8325 -101329.6199 80.7776 -105508.4524 -101316.8852 80.5657 123.5848 162.3941 243038.7570 12.4757 11.8774
ENERGY: 14640 68.7907 260.4127 439.0098 15.6325 -121282.7076 15012.4370 28.9439 0.0000 4167.6733 -101289.8078 80.5619 -105457.4811 -101277.5894 81.1639 -146.6804 -107.8323 243479.7999 8.7839 8.5393
ENERGY: 14760 70.4160 242.9006 439.7667 12.6467 -121257.4810 15000.7038 32.3750 0.0000 4158.2910 -101300.3812 80.3806 -105458.6722 -101289.8701 80.7581 -136.2960 -94.2168 242966.6296 8.6066 8.4528
ENERGY: 14880 71.8580 249.0152 436.0229 16.0400 -121184.6999 14922.9276 27.9296 0.0000 4159.0387 -101301.8680 80.3950 -105460.9067 -101289.9329 80.8503 -218.6282 -179.1515 243214.3736 -6.1590 -5.6806
ENERGY: 15000 73.8661 244.1942 438.4518 13.0060 -121476.7077 15191.0192 27.0460 0.0000 4211.6217 -101277.5027 81.4115 -105489.1244 -101264.5956 81.0426 120.8540 160.7858 242832.3695 5.3737 5.4410
TCL: Setting parameter langevintemp to 84
TCL: Setting parameter langevinpistontemp to 84
TCL: Running for 600 steps
ETITLE: TS BOND ANGLE DIHED IMPRP ELECT VDW BOUNDARY MISC KINETIC TOTAL TEMP POTENTIAL TOTAL3 TEMPAVG PRESSURE GPRESSURE VOLUME PRESSAVG GPRESSAVG
ENERGY: 15000 73.8661 244.1942 438.4518 13.0060 -121476.7077 15191.0192 27.0460 0.0000 4211.4917 -101277.6328 81.4089 -105489.1244 -101265.8491 81.4089 120.1114 161.0358 242832.3695 120.1114 161.0358
ENERGY: 15120 65.5275 244.4223 442.4977 14.2004 -121170.8707 14869.6156 31.1319 0.0000 4250.0639 -101253.4113 82.1546 -105503.4752 -101240.7429 81.3519 -153.0945 -111.7343 242885.9695 3.7064 3.3282
ENERGY: 15240 70.4853 250.5023 437.8371 12.3880 -121408.0231 15108.1882 29.2627 0.0000 4237.1839 -101262.1757 81.9056 -105499.3596 -101249.5777 81.4935 27.5538 68.9527 243021.7626 9.0794 9.1862
ENERGY: 15360 71.1600 253.6919 437.7140 14.2738 -121277.9937 15012.7740 30.5753 0.0000 4211.0842 -101246.7205 81.4011 -105457.8047 -101235.2108 81.7353 -108.0173 -67.2684 243374.1852 -7.1483 -7.4273
ENERGY: 15480 67.0165 250.2915 436.7251 14.4964 -121267.6779 14975.3671 31.2867 0.0000 4237.6143 -101254.8804 81.9139 -105492.4947 -101242.7565 81.4474 -98.8759 -61.5335 242930.5207 6.0828 5.9786
ENERGY: 15600 66.0717 251.7561 439.2106 13.5811 -121395.9758 15113.5098 28.2702 0.0000 4230.0643 -101253.5121 81.7680 -105483.5764 -101240.5053 81.3910 81.9818 123.9764 242938.3129 -6.4626 -6.3038
TCL: Setting parameter langevintemp to 85
TCL: Setting parameter langevinpistontemp to 85
TCL: Running for 600 steps
ETITLE: TS BOND ANGLE DIHED IMPRP ELECT VDW BOUNDARY MISC KINETIC TOTAL TEMP POTENTIAL TOTAL3 TEMPAVG PRESSURE GPRESSURE VOLUME PRESSAVG GPRESSAVG
ENERGY: 15600 66.0717 251.7561 439.2106 13.5811 -121395.9758 15113.5098 28.2702 0.0000 4229.9345 -101253.6418 81.7654 -105483.5764 -101241.6407 81.7654 83.0124 124.1865 242938.3129 83.0124 124.1865
ENERGY: 15720 81.5014 247.3302 443.5122 13.3015 -121243.4473 14927.2988 30.1697 0.0000 4262.8536 -101237.4798 82.4018 -105500.3334 -101225.0979 82.1304 -237.5900 -199.5810 243201.6799 -11.1143 -11.3266
ENERGY: 15840 65.9690 243.5430 442.7261 13.3454 -121292.1526 15040.2422 30.6662 0.0000 4273.8410 -101181.8196 82.6142 -105455.6607 -101171.2062 82.2946 -15.7463 23.8671 242856.4396 17.1084 17.1018
ENERGY: 15960 70.7575 230.2890 439.0844 13.7637 -121240.5918 15032.9976 27.7498 0.0000 4248.8074 -101177.1424 82.1303 -105425.9498 -101166.3549 82.6087 -40.1565 -0.9815 242985.8122 6.0363 5.8965
ENERGY: 16080 71.8281 242.6631 444.6619 15.2221 -121190.5411 14949.7558 27.7986 0.0000 4252.8451 -101185.7664 82.2083 -105438.6115 -101173.5249 82.4438 -127.6214 -84.6801 243038.6698 3.3368 3.4920
ENERGY: 16200 70.2014 244.7778 441.3616 14.0078 -121177.4783 14927.8014 29.1532 0.0000 4264.2957 -101185.8793 82.4297 -105450.1750 -101171.5736 82.2375 -175.0291 -133.2121 243142.2292 -3.4948 -3.3674
TCL: Setting parameter langevintemp to 86
TCL: Setting parameter langevinpistontemp to 86
TCL: Running for 600 steps
ETITLE: TS BOND ANGLE DIHED IMPRP ELECT VDW BOUNDARY MISC KINETIC TOTAL TEMP POTENTIAL TOTAL3 TEMPAVG PRESSURE GPRESSURE VOLUME PRESSAVG GPRESSAVG
ENERGY: 16200 70.2014 244.7778 441.3616 14.0078 -121177.4783 14927.8014 29.1532 0.0000 4264.1647 -101186.0103 82.4271 -105450.1750 -101174.0025 82.4271 -172.2164 -132.8967 243142.2292 -172.2164 -132.8967
ENERGY: 16320 68.5463 251.3088 439.7035 12.8584 -121314.2444 15086.9234 28.7337 0.0000 4247.3588 -101178.8115 82.1023 -105426.1703 -101167.0726 82.3886 56.6446 95.8738 242644.9818 1.6600 1.4177
ENERGY: 16440 73.0725 259.4891 439.0398 13.9495 -121134.1761 14922.1931 29.2118 0.0000 4245.1624 -101152.0579 82.0598 -105397.2204 -101140.0181 82.2369 -198.5194 -156.3730 242994.0200 25.8340 25.8925
ENERGY: 16560 72.2168 253.9926 441.0580 13.4008 -121472.3707 15222.5351 27.1440 0.0000 4319.2354 -101122.7880 83.4917 -105442.0234 -101109.8537 83.1675 207.7535 245.4768 242350.6171 -11.1539 -11.2555
ENERGY: 16680 72.0404 253.2150 443.2992 13.6910 -121252.0317 15041.4701 27.1902 0.0000 4308.0651 -101093.0608 83.2757 -105401.1259 -101081.2092 83.0660 -26.1287 16.1649 242505.1499 7.5210 7.5852
ENERGY: 16800 77.0817 244.2348 441.9694 16.2447 -121266.5947 15042.7513 27.7278 0.0000 4315.8226 -101100.7624 83.4257 -105416.5850 -101088.8019 83.2213 -21.8046 21.0811 242840.8714 -21.2207 -21.1445
TCL: Setting parameter langevintemp to 87
TCL: Setting parameter langevinpistontemp to 87
TCL: Running for 600 steps
ETITLE: TS BOND ANGLE DIHED IMPRP ELECT VDW BOUNDARY MISC KINETIC TOTAL TEMP POTENTIAL TOTAL3 TEMPAVG PRESSURE GPRESSURE VOLUME PRESSAVG GPRESSAVG
ENERGY: 16800 77.0817 244.2348 441.9694 16.2447 -121266.5947 15042.7513 27.7278 0.0000 4315.6878 -101100.8972 83.4231 -105416.5850 -101089.1090 83.4231 -21.3896 21.0707 242840.8714 -21.3896 21.0707
ENERGY: 16920 72.1900 255.0749 441.9134 13.9967 -121201.8149 15020.6895 28.8795 0.0000 4325.9010 -101043.1699 83.6205 -105369.0709 -101029.6111 83.6019 -56.4209 -19.3067 242932.2640 13.7202 13.0746
ENERGY: 17040 73.9912 257.6667 431.2733 15.8908 -121227.6419 15060.2663 32.9380 0.0000 4325.4147 -101030.2010 83.6111 -105355.6157 -101016.5201 83.9523 40.2207 79.2267 242720.9172 -10.5557 -10.6351
ENERGY: 17160 65.6400 262.8826 438.3329 12.0530 -121117.3133 14974.3785 26.1940 0.0000 4348.1033 -100989.7290 84.0497 -105337.8323 -100977.4823 84.1824 -23.9112 15.5296 242719.2755 28.0536 27.6443
ENERGY: 17280 71.6861 255.5064 441.8563 13.5376 -121108.1342 14943.5717 28.1425 0.0000 4352.9346 -101000.8990 84.1431 -105353.8336 -100988.8118 84.4398 -101.1985 -62.7534 242925.7558 7.1475 6.7370
ENERGY: 17400 76.6939 258.9817 441.1466 15.7707 -121219.4536 15042.0221 30.6724 0.0000 4378.6194 -100975.5468 84.6396 -105354.1662 -100963.6918 84.7123 -97.5556 -55.2250 242960.5101 17.9458 17.8550
TCL: Setting parameter langevintemp to 88
TCL: Setting parameter langevinpistontemp to 88
TCL: Running for 600 steps
ETITLE: TS BOND ANGLE DIHED IMPRP ELECT VDW BOUNDARY MISC KINETIC TOTAL TEMP POTENTIAL TOTAL3 TEMPAVG PRESSURE GPRESSURE VOLUME PRESSAVG GPRESSAVG
ENERGY: 17400 76.6939 258.9817 441.1466 15.7707 -121219.4535 15042.0221 30.6724 0.0000 4378.4871 -100975.6791 84.6370 -105354.1662 -100963.7067 84.6370 -97.2818 -55.2728 242960.5101 -97.2818 -55.2728
ENERGY: 17520 81.6664 249.3548 444.8272 15.7793 -121127.0808 15015.9577 30.6079 0.0000 4357.3765 -100931.5110 84.2289 -105288.8875 -100918.3812 84.6267 -55.3139 -15.0737 243012.4385 12.8053 12.7236
ENERGY: 17640 66.2307 239.3729 442.7946 13.9326 -121163.9828 15063.8369 28.6530 0.0000 4406.7489 -100902.4132 85.1833 -105309.1621 -100889.4448 85.3830 75.6015 116.2309 242826.8005 -10.7870 -11.3146
ENERGY: 17760 71.7496 257.1748 440.5678 12.3435 -120965.9218 14860.7427 28.1065 0.0000 4414.2381 -100880.9988 85.3281 -105295.2369 -100867.0542 85.2775 -61.6798 -22.5241 242716.2914 2.7544 2.5716
ENERGY: 17880 67.1334 253.8515 446.2316 13.0430 -121018.8591 14922.3292 29.0320 0.0000 4414.7078 -100872.5306 85.3371 -105287.2384 -100861.0807 85.7248 -53.4218 -11.7217 242840.7525 -6.3632 -6.1149
ENERGY: 18000 72.5477 246.3947 441.2577 16.9456 -121030.1589 14932.0347 28.9296 0.0000 4466.7003 -100825.3486 86.3422 -105292.0490 -100811.6526 85.9569 -48.1480 -9.9042 242819.5342 2.5811 2.4701
TCL: Setting parameter langevintemp to 89
TCL: Setting parameter langevinpistontemp to 89
TCL: Running for 600 steps
ETITLE: TS BOND ANGLE DIHED IMPRP ELECT VDW BOUNDARY MISC KINETIC TOTAL TEMP POTENTIAL TOTAL3 TEMPAVG PRESSURE GPRESSURE VOLUME PRESSAVG GPRESSAVG
ENERGY: 18000 72.5477 246.3947 441.2577 16.9456 -121030.1590 14932.0347 28.9296 0.0000 4466.5616 -100825.4874 86.3395 -105292.0490 -100813.2374 86.3395 -49.6893 -9.7087 242819.5342 -49.6893 -9.7087
ENERGY: 18120 70.6644 261.7380 443.5891 11.3030 -121162.0100 15071.1282 33.1602 0.0000 4479.2025 -100791.2246 86.5838 -105270.4271 -100778.2293 86.4759 98.6283 141.8277 242535.8035 -4.0058 -4.0430
ENERGY: 18240 71.5655 256.4531 443.7949 12.8857 -121040.1041 14953.1208 31.5287 0.0000 4498.3971 -100772.3583 86.9549 -105270.7554 -100760.0130 86.5211 -25.8638 16.0401 242409.6612 4.8662 5.0236
ENERGY: 18360 68.8171 256.4803 444.9990 14.8574 -120979.7598 14936.3634 27.0565 0.0000 4473.5929 -100757.5931 86.4754 -105231.1860 -100744.2236 86.9137 -48.4049 -4.9634 242804.3780 -4.3208 -3.7388
ENERGY: 18480 83.5515 252.4836 442.7903 18.3675 -121008.9237 14918.1453 27.5340 0.0000 4465.5206 -100800.5308 86.3194 -105266.0514 -100787.8567 86.6028 -39.0754 0.1661 242598.0788 -10.0588 -10.3236
ENERGY: 18600 77.3970 250.0758 446.6443 18.4458 -121031.8311 14956.7734 27.5536 0.0000 4468.8884 -100786.0527 86.3845 -105254.9411 -100771.3880 86.6707 -99.6163 -56.1870 243013.7872 3.4236 3.5189
TCL: Setting parameter langevintemp to 90
TCL: Setting parameter langevinpistontemp to 90
TCL: Running for 600 steps
ETITLE: TS BOND ANGLE DIHED IMPRP ELECT VDW BOUNDARY MISC KINETIC TOTAL TEMP POTENTIAL TOTAL3 TEMPAVG PRESSURE GPRESSURE VOLUME PRESSAVG GPRESSAVG
ENERGY: 18600 77.3970 250.0758 446.6443 18.4458 -121031.8311 14956.7734 27.5536 0.0000 4468.7514 -100786.1896 86.3818 -105254.9411 -100773.7026 86.3818 -100.3101 -55.8364 243013.7872 -100.3101 -55.8364
ENERGY: 18720 84.9365 242.4879 442.8626 12.6630 -121148.0963 15052.2690 29.8142 0.0000 4477.0142 -100806.0491 86.5415 -105283.0632 -100793.4177 86.6236 49.0219 87.6545 242269.7902 1.6824 1.8330
ENERGY: 18840 71.8028 255.2415 442.5981 14.1020 -121094.8775 14986.5065 29.3710 0.0000 4508.5271 -100786.7284 87.1507 -105295.2555 -100772.2323 86.6636 53.5095 91.8506 242616.1064 -13.9999 -13.9223
ENERGY: 18960 78.9896 247.0564 441.6557 14.0856 -120982.0182 14887.6310 28.7999 0.0000 4483.6334 -100800.1667 86.6695 -105283.8001 -100787.1715 86.6329 -222.6518 -179.1390 243004.9338 13.6251 13.8689
ENERGY: 19080 77.2264 249.5397 447.6704 17.0641 -121021.7275 14973.4518 28.5181 0.0000 4460.7140 -100767.5431 86.2265 -105228.2571 -100756.3108 87.2346 -21.3961 19.5802 242958.1357 13.4447 13.6176
ENERGY: 19200 80.6571 254.8495 447.6607 14.0624 -120962.5165 14861.8837 30.5147 0.0000 4522.9868 -100749.9016 87.4302 -105272.8884 -100737.4739 87.2769 -243.3319 -205.0539 243222.1600 -12.1236 -12.0441
TCL: Setting parameter langevintemp to 91
TCL: Setting parameter langevinpistontemp to 91
TCL: Running for 600 steps
ETITLE: TS BOND ANGLE DIHED IMPRP ELECT VDW BOUNDARY MISC KINETIC TOTAL TEMP POTENTIAL TOTAL3 TEMPAVG PRESSURE GPRESSURE VOLUME PRESSAVG GPRESSAVG
ENERGY: 19200 80.6571 254.8495 447.6607 14.0624 -120962.5165 14861.8837 30.5147 0.0000 4522.8476 -100750.0408 87.4275 -105272.8884 -100736.9400 87.4275 -244.1586 -205.1802 243222.1600 -244.1586 -205.1802
ENERGY: 19320 78.5479 249.9985 444.3827 15.3093 -121055.7648 14996.9135 31.2490 0.0000 4532.7703 -100706.5937 87.6193 -105239.3640 -100691.7418 87.4705 44.1430 86.4080 242611.0690 8.6789 8.8585
ENERGY: 19440 72.5418 252.0258 442.9725 15.4491 -121174.2865 15111.8278 30.5557 0.0000 4543.7630 -100705.1509 87.8318 -105248.9139 -100692.8416 87.6406 129.6750 171.1111 242813.5390 -1.2342 -1.1052
ENERGY: 19560 81.1925 238.1372 442.9605 14.4846 -120992.6304 14948.3651 30.5012 0.0000 4587.9641 -100649.0252 88.6862 -105236.9892 -100634.7925 88.0123 -79.4972 -40.8612 242878.4627 -6.9775 -7.0749
ENERGY: 19680 78.3262 250.6367 441.8937 14.9518 -120827.6019 14825.9689 27.4747 0.0000 4540.9586 -100647.3913 87.7776 -105188.3499 -100634.9118 88.1212 -150.2626 -110.1304 242948.4366 8.2921 8.4968
ENERGY: 19800 79.5319 248.4500 442.0481 14.5658 -120870.9621 14863.0742 26.9320 0.0000 4580.7407 -100615.6193 88.5466 -105196.3600 -100602.2965 88.6494 -86.0715 -41.0554 242610.6235 -13.5175 -13.2250
TCL: Setting parameter langevintemp to 92
TCL: Setting parameter langevinpistontemp to 92
TCL: Running for 600 steps
ETITLE: TS BOND ANGLE DIHED IMPRP ELECT VDW BOUNDARY MISC KINETIC TOTAL TEMP POTENTIAL TOTAL3 TEMPAVG PRESSURE GPRESSURE VOLUME PRESSAVG GPRESSAVG
ENERGY: 19800 79.5319 248.4500 442.0481 14.5658 -120870.9621 14863.0742 26.9320 0.0000 4580.5993 -100615.7606 88.5439 -105196.3600 -100602.2061 88.5439 -84.1329 -41.1062 242610.6235 -84.1329 -41.1062
ENERGY: 19920 68.5196 253.2499 445.3795 14.5997 -120991.9927 14995.5351 27.5895 0.0000 4610.0624 -100577.0571 89.1134 -105187.1195 -100563.9735 88.6465 -4.0596 37.2097 242940.1520 23.0078 23.1695
ENERGY: 20040 76.4031 250.9258 438.1078 12.7248 -120990.8657 14967.0590 28.4444 0.0000 4643.6766 -100573.5242 89.7632 -105217.2008 -100560.9856 89.3711 6.0666 49.2770 242765.6498 -2.7429 -2.8006
ENERGY: 20160 74.0797 252.9480 441.5666 12.9574 -120912.3674 14920.8952 28.5498 0.0000 4615.4568 -100565.9138 89.2177 -105181.3706 -100552.9775 89.1124 -60.1583 -18.2847 242878.5643 -0.6480 -0.0803
ENERGY: 20280 81.5118 258.7876 442.7718 15.7149 -120974.5040 14949.3942 26.1409 0.0000 4656.1500 -100544.0327 90.0043 -105200.1827 -100530.3079 89.7813 -61.6394 -13.3628 242746.6846 -2.7270 -2.3729
ENERGY: 20400 74.7910 255.4526 440.3956 14.0623 -121025.4023 15033.1370 30.0888 0.0000 4623.2319 -100554.2432 89.3680 -105177.4751 -100540.3102 89.1553 137.8890 179.3366 242432.9791 -26.2365 -26.2398
TCL: Setting parameter langevintemp to 93
TCL: Setting parameter langevinpistontemp to 93
TCL: Running for 600 steps
ETITLE: TS BOND ANGLE DIHED IMPRP ELECT VDW BOUNDARY MISC KINETIC TOTAL TEMP POTENTIAL TOTAL3 TEMPAVG PRESSURE GPRESSURE VOLUME PRESSAVG GPRESSAVG
ENERGY: 20400 74.7910 255.4526 440.3956 14.0623 -121025.4023 15033.1370 30.0888 0.0000 4623.0894 -100554.3857 89.3652 -105177.4751 -100541.0955 89.3652 137.9323 179.4725 242432.9791 137.9323 179.4725
ENERGY: 20520 74.2854 245.7143 447.8900 14.0564 -120933.4503 14906.3297 30.2155 0.0000 4659.0345 -100555.9245 90.0600 -105214.9591 -100542.4988 89.5752 -58.8995 -15.1718 242778.8221 -10.4019 -10.4260
ENERGY: 20640 80.2017 255.3428 449.7493 17.1834 -120955.8299 14970.2839 28.1115 0.0000 4631.1209 -100523.8364 89.5205 -105154.9573 -100510.7479 89.6714 -25.8108 11.5247 242846.0263 -2.2411 -2.5682
ENERGY: 20760 77.1893 257.1963 448.0424 12.4925 -120966.8555 14970.2528 30.9455 0.0000 4636.0027 -100534.7339 89.6148 -105170.7366 -100520.7817 89.5470 -79.3259 -36.0929 242749.7654 -22.4903 -22.3748
ENERGY: 20880 83.5060 235.5117 445.2208 15.5892 -120823.3455 14861.4257 29.1843 0.0000 4659.2816 -100493.6261 90.0648 -105152.9077 -100481.0570 89.7785 -73.8099 -30.0588 242566.3527 3.1218 3.3812
ENERGY: 21000 66.9185 265.2652 443.8289 13.0566 -120934.6372 14964.7090 26.6138 0.0000 4653.4669 -100500.7782 89.9524 -105154.2452 -100487.5884 89.8260 -2.8681 40.7928 242579.5587 8.2788 8.0109
TCL: Setting parameter langevintemp to 94
TCL: Setting parameter langevinpistontemp to 94
TCL: Running for 600 steps
ETITLE: TS BOND ANGLE DIHED IMPRP ELECT VDW BOUNDARY MISC KINETIC TOTAL TEMP POTENTIAL TOTAL3 TEMPAVG PRESSURE GPRESSURE VOLUME PRESSAVG GPRESSAVG
ENERGY: 21000 66.9185 265.2652 443.8289 13.0566 -120934.6371 14964.7090 26.6138 0.0000 4653.3221 -100500.9230 89.9496 -105154.2451 -100487.2760 89.9496 -4.4047 40.5999 242579.5587 -4.4047 40.5999
ENERGY: 21120 71.3254 253.3308 449.5054 14.5605 -120814.8643 14852.1068 32.4751 0.0000 4686.6080 -100454.9522 90.5930 -105141.5603 -100443.0234 90.3495 -108.6452 -65.9228 242697.8493 -25.1852 -25.5837
ENERGY: 21240 69.3416 243.7560 442.0686 13.8646 -120873.0923 14953.5861 32.1311 0.0000 4657.2783 -100461.0658 90.0261 -105118.3442 -100447.1102 90.3122 102.0554 140.5694 242643.2416 8.4723 8.4618
ENERGY: 21360 64.2509 252.8267 447.0961 14.5393 -120784.6205 14852.5137 29.7789 0.0000 4695.0542 -100428.5607 90.7563 -105123.6150 -100415.4491 90.5489 -5.9805 35.5790 242692.5047 7.4558 7.5155
ENERGY: 21480 73.4553 252.9874 441.5858 11.8048 -120864.3399 14927.1274 29.1736 0.0000 4726.3487 -100401.8569 91.3612 -105128.2056 -100388.7725 90.7414 -18.6426 26.0419 242536.2985 13.2645 13.2620
ENERGY: 21600 76.7238 252.5986 447.9244 13.9538 -120705.2603 14823.3170 32.9500 0.0000 4702.4096 -100355.3830 90.8985 -105057.7927 -100341.5214 91.3061 -65.8132 -17.7482 242669.9671 -3.0559 -3.3362
TCL: Setting parameter langevintemp to 95
TCL: Setting parameter langevinpistontemp to 95
TCL: Running for 600 steps
ETITLE: TS BOND ANGLE DIHED IMPRP ELECT VDW BOUNDARY MISC KINETIC TOTAL TEMP POTENTIAL TOTAL3 TEMPAVG PRESSURE GPRESSURE VOLUME PRESSAVG GPRESSAVG
ENERGY: 21600 76.7238 252.5986 447.9244 13.9538 -120705.2603 14823.3170 32.9500 0.0000 4702.2639 -100355.5288 90.8957 -105057.7927 -100342.3500 90.8957 -64.4192 -17.6008 242669.9671 -64.4192 -17.6008
ENERGY: 21720 66.9403 254.9608 449.9107 16.1307 -120814.4335 14869.8167 29.6577 0.0000 4763.8018 -100363.2149 92.0852 -105127.0166 -100350.1612 91.4707 -39.9110 3.7345 242929.3652 -6.8688 -6.4389
ENERGY: 21840 69.6151 256.8781 441.4570 16.0374 -120719.8374 14819.2659 29.1290 0.0000 4734.9632 -100352.4918 91.5277 -105087.4549 -100337.6078 91.0781 -48.5428 -5.5646 242841.0730 -4.9768 -5.1088
ENERGY: 21960 70.6790 246.1501 444.1818 15.5624 -120674.3422 14809.7908 28.2868 0.0000 4742.6566 -100317.0347 91.6765 -105059.6913 -100301.0623 91.8763 -141.6844 -96.1531 242639.7732 -1.4050 -1.7661
ENERGY: 22080 71.7228 244.6426 451.0697 11.4167 -120874.6474 14984.1149 27.4274 0.0000 4792.0238 -100292.2295 92.6307 -105084.2533 -100277.7284 91.9945 54.2082 100.5354 242568.1547 -16.5689 -16.7183
ENERGY: 22200 80.0329 240.8101 443.3822 14.2205 -120720.6871 14810.1035 30.6829 0.0000 4797.6608 -100303.7943 92.7397 -105101.4551 -100291.2278 92.2590 -156.5763 -113.5966 242878.9590 -23.4243 -23.3149
TCL: Setting parameter langevintemp to 96
TCL: Setting parameter langevinpistontemp to 96
TCL: Running for 600 steps
ETITLE: TS BOND ANGLE DIHED IMPRP ELECT VDW BOUNDARY MISC KINETIC TOTAL TEMP POTENTIAL TOTAL3 TEMPAVG PRESSURE GPRESSURE VOLUME PRESSAVG GPRESSAVG
ENERGY: 22200 80.0329 240.8101 443.3822 14.2205 -120720.6871 14810.1035 30.6829 0.0000 4797.5152 -100303.9400 92.7369 -105101.4551 -100289.9367 92.7369 -158.3201 -113.8764 242878.9590 -158.3201 -113.8764
ENERGY: 22320 73.0816 260.0493 446.3666 15.7300 -120767.8277 14882.9675 32.4155 0.0000 4795.7728 -100261.4444 92.7032 -105057.2172 -100248.9904 92.5827 47.2323 89.4660 242642.9902 20.4735 20.3966
ENERGY: 22440 77.0630 257.5810 443.6357 15.7345 -120707.9510 14841.9390 29.0978 0.0000 4796.3667 -100246.5333 92.7147 -105042.9000 -100231.8466 92.6199 -43.6429 -0.0242 242944.9929 -3.6334 -3.9935
ENERGY: 22560 77.4154 252.3375 441.7759 12.0128 -120680.6240 14853.8752 31.9704 0.0000 4795.3673 -100215.8696 92.6954 -105011.2369 -100201.8169 92.9363 35.2523 80.3860 242404.3617 1.5893 1.2290
ENERGY: 22680 78.7205 253.5349 439.5379 13.4228 -120532.3469 14731.5539 30.5168 0.0000 4797.5173 -100187.5429 92.7369 -104985.0602 -100174.7132 93.6735 -164.9539 -119.6253 242778.3555 -13.2518 -13.0977
ENERGY: 22800 80.7842 262.4642 444.9044 15.0448 -120701.3241 14852.3399 30.5388 0.0000 4844.2558 -100170.9920 93.6404 -105015.2477 -100157.4036 93.4497 -21.1513 20.1324 242667.4256 -27.3162 -27.3308
TCL: Setting parameter langevintemp to 97
TCL: Setting parameter langevinpistontemp to 97
TCL: Running for 600 steps
ETITLE: TS BOND ANGLE DIHED IMPRP ELECT VDW BOUNDARY MISC KINETIC TOTAL TEMP POTENTIAL TOTAL3 TEMPAVG PRESSURE GPRESSURE VOLUME PRESSAVG GPRESSAVG
ENERGY: 22800 80.7842 262.4642 444.9044 15.0448 -120701.3241 14852.3399 30.5388 0.0000 4844.1050 -100171.1428 93.6375 -105015.2477 -100157.6616 93.6375 -21.1856 20.1444 242667.4256 -21.1856 20.1444
ENERGY: 22920 75.4139 253.6022 445.6138 15.0098 -120622.1368 14826.6997 31.6274 0.0000 4814.6174 -100159.5524 93.0675 -104974.1698 -100146.6266 93.6283 -108.2899 -65.1037 242802.0104 -16.3679 -16.1934
ENERGY: 23040 67.2683 258.2893 443.3584 13.5346 -120653.0654 14833.4059 32.0851 0.0000 4847.6092 -100157.5145 93.7052 -105005.1237 -100143.0246 93.4702 78.0862 122.6276 242440.3351 0.1578 -0.3203
ENERGY: 23160 72.7353 257.3904 438.9739 14.0629 -120695.8552 14860.5664 31.3669 0.0000 4861.3167 -100159.4427 93.9702 -105020.7594 -100146.3968 93.8754 70.5629 108.8936 242627.4424 -3.3011 -3.3629
ENERGY: 23280 70.9714 250.9305 450.6128 17.7930 -120787.0607 14959.1716 26.7848 0.0000 4870.4259 -100140.3706 94.1463 -105010.7965 -100126.0108 93.7186 161.3206 203.5120 242572.7528 -18.3495 -18.6138
ENERGY: 23400 76.7983 274.5423 446.4670 13.3810 -120586.8822 14799.1487 28.8197 0.0000 4837.6410 -100110.0842 93.5125 -104947.7252 -100095.2699 94.0122 -70.4555 -24.2870 242285.1621 -5.1755 -5.2949
TCL: Setting parameter langevintemp to 98
TCL: Setting parameter langevinpistontemp to 98
TCL: Running for 600 steps
ETITLE: TS BOND ANGLE DIHED IMPRP ELECT VDW BOUNDARY MISC KINETIC TOTAL TEMP POTENTIAL TOTAL3 TEMPAVG PRESSURE GPRESSURE VOLUME PRESSAVG GPRESSAVG
ENERGY: 23400 76.7983 274.5423 446.4670 13.3810 -120586.8822 14799.1487 28.8197 0.0000 4837.4890 -100110.2362 93.5096 -104947.7252 -100096.8984 93.5096 -68.3849 -24.0364 242285.1621 -68.3849 -24.0364
ENERGY: 23520 81.1885 257.1613 442.5395 14.5533 -120564.3657 14766.3327 30.4371 0.0000 4859.4335 -100112.7198 93.9338 -104972.1533 -100099.2407 94.4555 -61.0009 -23.8272 242690.4705 4.8932 4.6452
ENERGY: 23640 72.3119 253.5732 450.2486 11.8427 -120582.5991 14779.2623 30.0046 0.0000 4923.0396 -100062.3163 95.1633 -104985.3559 -100049.1195 94.7090 -130.0196 -85.2101 242867.3373 7.2152 7.2147
ENERGY: 23760 78.6392 248.2262 447.9278 13.8394 -120714.5545 14925.9527 28.9907 0.0000 4899.9264 -100071.0524 94.7165 -104970.9787 -100055.9808 94.6590 84.2440 125.4911 242678.4597 -2.9324 -2.9870
ENERGY: 23880 76.9350 261.8625 442.2318 14.9884 -120514.7464 14764.5384 28.8127 0.0000 4896.9721 -100028.4056 94.6594 -104925.3777 -100014.6802 95.0878 -9.5357 36.8137 242613.1864 -1.5494 -2.0800
ENERGY: 24000 78.9777 247.8952 445.3913 16.1078 -120624.5824 14856.5906 30.7813 0.0000 4944.4373 -100004.4012 95.5769 -104948.8385 -99990.3965 95.7474 -68.7642 -28.6854 242525.3871 6.4677 5.9705
TCL: Setting parameter langevintemp to 99
TCL: Setting parameter langevinpistontemp to 99
TCL: Running for 600 steps
